*SPEF "1481-1998"
*DESIGN "fsm"
*DATE "Mon Mar 13 07:23:39 2017"
*VENDOR "Synopsys, Inc."
*PROGRAM "icc_shell"
*VERSION "G-2012.06-ICC-SP2"
*DESIGN_FLOW "PIN_CAP NONE"
*DIVIDER /
*DELIMITER :
*BUS_DELIMITER [ ]
*T_UNIT 1 NS
*C_UNIT 1 FF
*R_UNIT 1 OHM
*L_UNIT 1 HENRY

*NAME_MAP
*1 Haddr[6]
*2 Haddr[5]
*3 Haddr[4]
*4 Haddr[3]
*5 Haddr[2]
*6 Haddr[1]
*7 Haddr[0]
*8 Haddr[14]
*9 Haddr[13]
*10 Haddr[12]
*11 Haddr[11]
*12 Haddr[10]
*13 Haddr[9]
*14 Haddr[8]
*15 Haddr[7]
*16 Haddr[22]
*17 Haddr[21]
*18 Haddr[20]
*19 Haddr[19]
*20 Haddr[18]
*21 Haddr[17]
*22 Haddr[16]
*23 Haddr[15]
*24 Haddr[30]
*25 Haddr[29]
*26 Haddr[28]
*27 Haddr[27]
*28 Haddr[26]
*29 Haddr[25]
*30 Haddr[24]
*31 Haddr[23]
*32 Hwdata[6]
*33 Hwdata[5]
*34 Hwdata[4]
*35 Hwdata[3]
*36 Hwdata[2]
*37 Hwdata[1]
*38 Hwdata[0]
*39 Haddr[31]
*40 Hwdata[14]
*41 Hwdata[13]
*42 Hwdata[12]
*43 Hwdata[11]
*44 Hwdata[10]
*45 Hwdata[9]
*46 Hwdata[8]
*47 Hwdata[7]
*48 Hwdata[22]
*49 Hwdata[21]
*50 Hwdata[20]
*51 Hwdata[19]
*52 Hwdata[18]
*53 Hwdata[17]
*54 Hwdata[16]
*55 Hwdata[15]
*56 Hwdata[30]
*57 Hwdata[29]
*58 Hwdata[28]
*59 Hwdata[27]
*60 Hwdata[26]
*61 Hwdata[25]
*62 Hwdata[24]
*63 Hwdata[23]
*64 Prdata[6]
*65 Prdata[5]
*66 Prdata[4]
*67 Prdata[3]
*68 Prdata[2]
*69 Prdata[1]
*70 Prdata[0]
*71 Hwdata[31]
*72 Prdata[14]
*73 Prdata[13]
*74 Prdata[12]
*75 Prdata[11]
*76 Prdata[10]
*77 Prdata[9]
*78 Prdata[8]
*79 Prdata[7]
*80 Prdata[22]
*81 Prdata[21]
*82 Prdata[20]
*83 Prdata[19]
*84 Prdata[18]
*85 Prdata[17]
*86 Prdata[16]
*87 Prdata[15]
*88 Prdata[30]
*89 Prdata[29]
*90 Prdata[28]
*91 Prdata[27]
*92 Prdata[26]
*93 Prdata[25]
*94 Prdata[24]
*95 Prdata[23]
*96 Hrdata[4]
*97 Hrdata[3]
*98 Hrdata[2]
*99 Hrdata[1]
*100 Hrdata[0]
*101 Htrans[1]
*102 Htrans[0]
*103 Prdata[31]
*104 Hrdata[12]
*105 Hrdata[11]
*106 Hrdata[10]
*107 Hrdata[9]
*108 Hrdata[8]
*109 Hrdata[7]
*110 Hrdata[6]
*111 Hrdata[5]
*112 Hrdata[20]
*113 Hrdata[19]
*114 Hrdata[18]
*115 Hrdata[17]
*116 Hrdata[16]
*117 Hrdata[15]
*118 Hrdata[14]
*119 Hrdata[13]
*120 Hrdata[28]
*121 Hrdata[27]
*122 Hrdata[26]
*123 Hrdata[25]
*124 Hrdata[24]
*125 Hrdata[23]
*126 Hrdata[22]
*127 Hrdata[21]
*128 Pwdata[4]
*129 Pwdata[3]
*130 Pwdata[2]
*131 Pwdata[1]
*132 Pwdata[0]
*133 Hrdata[31]
*134 Hrdata[30]
*135 Hrdata[29]
*136 Pwdata[12]
*137 Pwdata[11]
*138 Pwdata[10]
*139 Pwdata[9]
*140 Pwdata[8]
*141 Pwdata[7]
*142 Pwdata[6]
*143 Pwdata[5]
*144 Pwdata[20]
*145 Pwdata[19]
*146 Pwdata[18]
*147 Pwdata[17]
*148 Pwdata[16]
*149 Pwdata[15]
*150 Pwdata[14]
*151 Pwdata[13]
*152 Pwdata[28]
*153 Pwdata[27]
*154 Pwdata[26]
*155 Pwdata[25]
*156 Pwdata[24]
*157 Pwdata[23]
*158 Pwdata[22]
*159 Pwdata[21]
*160 Paddr[4]
*161 Paddr[3]
*162 Paddr[2]
*163 Paddr[1]
*164 Paddr[0]
*165 Pwdata[31]
*166 Pwdata[30]
*167 Pwdata[29]
*168 Paddr[12]
*169 Paddr[11]
*170 Paddr[10]
*171 Paddr[9]
*172 Paddr[8]
*173 Paddr[7]
*174 Paddr[6]
*175 Paddr[5]
*176 Paddr[20]
*177 Paddr[19]
*178 Paddr[18]
*179 Paddr[17]
*180 Paddr[16]
*181 Paddr[15]
*182 Paddr[14]
*183 Paddr[13]
*184 Paddr[28]
*185 Paddr[27]
*186 Paddr[26]
*187 Paddr[25]
*188 Paddr[24]
*189 Paddr[23]
*190 Paddr[22]
*191 Paddr[21]
*192 Hwrite
*193 Hrstn
*194 Hclk
*195 Hresp[1]
*196 Hresp[0]
*197 Paddr[31]
*198 Paddr[30]
*199 Paddr[29]
*200 test_so
*201 Pwrite
*202 Pselx
*203 Penable
*204 Hready_out
*205 test_se
*206 test_si
*207 Hsel_APB
*208 n12
*209 U17
*210 U22
*211 U113
*212 U112
*213 U4
*214 U163
*215 U159
*216 U182
*217 U169
*218 n14
*219 U118
*220 U115
*221 U33
*222 U34
*223 U8
*224 n26
*225 U32
*226 U31
*227 U30
*228 U7
*229 U14
*230 n25
*231 U1
*232 U2
*233 U9
*234 n22
*235 U209
*236 U206
*237 U212
*238 U211
*239 U6
*240 n10
*241 U218
*242 U110
*243 current_state\[1\]
*244 U20
*245 U10
*246 current_state_reg_1_
*247 n9
*248 U119
*249 U19
*250 U18
*251 next_state\[1\]
*252 n8
*253 U217
*254 U109
*255 n15
*256 U216
*257 U116
*258 next_state\[2\]
*259 current_state_reg_2_
*260 n11
*261 U111
*262 U108
*263 n6
*264 current_state_reg_0_
*265 U15
*266 next_state\[0\]
*267 U215
*268 U214
*269 U213
*270 U210
*271 U208
*272 U207
*273 U205
*274 U204
*275 U203
*276 U202
*277 U201
*278 U200
*279 U199
*280 U198
*281 U197
*282 U196
*283 U195
*284 U194
*285 U193
*286 U192
*287 U191
*288 U190
*289 U189
*290 U188
*291 U187
*292 U186
*293 U185
*294 U184
*295 U183
*296 U181
*297 U180
*298 U179
*299 U178
*300 U177
*301 U176
*302 U175
*303 U174
*304 U173
*305 U172
*306 U171
*307 U170
*308 U168
*309 U167
*310 U166
*311 U165
*312 U164
*313 U162
*314 U161
*315 U160
*316 U158
*317 U157
*318 U156
*319 U155
*320 U154
*321 U153
*322 U152
*323 U151
*324 U150
*325 U149
*326 U148
*327 U147
*328 U146
*329 U145
*330 U144
*331 U143
*332 U142
*333 U141
*334 U140
*335 U139
*336 U138
*337 U137
*338 U136
*339 U135
*340 U134
*341 U133
*342 U132
*343 U131
*344 U130
*345 U129
*346 U128
*347 U127
*348 U126
*349 U125
*350 U124
*351 U123
*352 U122
*353 U121
*354 U120
*355 n3
*356 n5
*357 U114
*358 U117
*359 current_state\[2\]
*360 current_state\[0\]
*361 U13
*362 n13
*363 U23
*364 U5
*365 U24
*366 n7
*367 n54
*368 U11
*369 n56
*370 U29
*371 n57
*372 U21
*373 n60
*374 n61
*375 n62
*376 n63
*377 n71
*378 n79
*379 U28
*380 U27
*381 U25
*382 U3
*383 n80
*384 n82
*385 n83
*386 n84
*387 n85
*388 U26
*389 n86
*390 U16
*391 U12
*392 n87
*393 n88
*394 n89
*395 n90
*396 n91
*397 n92
*398 n93
*399 n94
*400 n95
*401 n96
*402 n97
*403 n98
*404 n99
*405 n100
*406 n101

*PORTS
*1 I *L 0.0 *S 0.0 0.0
*2 I *L 0.0 *S 0.0 0.0
*3 I *L 0.0 *S 0.0 0.0
*4 I *L 0.0 *S 0.0 0.0
*5 I *L 0.0 *S 0.0 0.0
*6 I *L 0.0 *S 0.0 0.0
*7 I *L 0.0 *S 0.0 0.0
*8 I *L 0.0 *S 0.0 0.0
*9 I *L 0.0 *S 0.0 0.0
*10 I *L 0.0 *S 0.0 0.0
*11 I *L 0.0 *S 0.0 0.0
*12 I *L 0.0 *S 0.0 0.0
*13 I *L 0.0 *S 0.0 0.0
*14 I *L 0.0 *S 0.0 0.0
*15 I *L 0.0 *S 0.0 0.0
*16 I *L 0.0 *S 0.0 0.0
*17 I *L 0.0 *S 0.0 0.0
*18 I *L 0.0 *S 0.0 0.0
*19 I *L 0.0 *S 0.0 0.0
*20 I *L 0.0 *S 0.0 0.0
*21 I *L 0.0 *S 0.0 0.0
*22 I *L 0.0 *S 0.0 0.0
*23 I *L 0.0 *S 0.0 0.0
*24 I *L 0.0 *S 0.0 0.0
*25 I *L 0.0 *S 0.0 0.0
*26 I *L 0.0 *S 0.0 0.0
*27 I *L 0.0 *S 0.0 0.0
*28 I *L 0.0 *S 0.0 0.0
*29 I *L 0.0 *S 0.0 0.0
*30 I *L 0.0 *S 0.0 0.0
*31 I *L 0.0 *S 0.0 0.0
*32 I *L 0.0 *S 0.0 0.0
*33 I *L 0.0 *S 0.0 0.0
*34 I *L 0.0 *S 0.0 0.0
*35 I *L 0.0 *S 0.0 0.0
*36 I *L 0.0 *S 0.0 0.0
*37 I *L 0.0 *S 0.0 0.0
*38 I *L 0.0 *S 0.0 0.0
*39 I *L 0.0 *S 0.0 0.0
*40 I *L 0.0 *S 0.0 0.0
*41 I *L 0.0 *S 0.0 0.0
*42 I *L 0.0 *S 0.0 0.0
*43 I *L 0.0 *S 0.0 0.0
*44 I *L 0.0 *S 0.0 0.0
*45 I *L 0.0 *S 0.0 0.0
*46 I *L 0.0 *S 0.0 0.0
*47 I *L 0.0 *S 0.0 0.0
*48 I *L 0.0 *S 0.0 0.0
*49 I *L 0.0 *S 0.0 0.0
*50 I *L 0.0 *S 0.0 0.0
*51 I *L 0.0 *S 0.0 0.0
*52 I *L 0.0 *S 0.0 0.0
*53 I *L 0.0 *S 0.0 0.0
*54 I *L 0.0 *S 0.0 0.0
*55 I *L 0.0 *S 0.0 0.0
*56 I *L 0.0 *S 0.0 0.0
*57 I *L 0.0 *S 0.0 0.0
*58 I *L 0.0 *S 0.0 0.0
*59 I *L 0.0 *S 0.0 0.0
*60 I *L 0.0 *S 0.0 0.0
*61 I *L 0.0 *S 0.0 0.0
*62 I *L 0.0 *S 0.0 0.0
*63 I *L 0.0 *S 0.0 0.0
*64 I *L 0.0 *S 0.0 0.0
*65 I *L 0.0 *S 0.0 0.0
*66 I *L 0.0 *S 0.0 0.0
*67 I *L 0.0 *S 0.0 0.0
*68 I *L 0.0 *S 0.0 0.0
*69 I *L 0.0 *S 0.0 0.0
*70 I *L 0.0 *S 0.0 0.0
*71 I *L 0.0 *S 0.0 0.0
*72 I *L 0.0 *S 0.0 0.0
*73 I *L 0.0 *S 0.0 0.0
*74 I *L 0.0 *S 0.0 0.0
*75 I *L 0.0 *S 0.0 0.0
*76 I *L 0.0 *S 0.0 0.0
*77 I *L 0.0 *S 0.0 0.0
*78 I *L 0.0 *S 0.0 0.0
*79 I *L 0.0 *S 0.0 0.0
*80 I *L 0.0 *S 0.0 0.0
*81 I *L 0.0 *S 0.0 0.0
*82 I *L 0.0 *S 0.0 0.0
*83 I *L 0.0 *S 0.0 0.0
*84 I *L 0.0 *S 0.0 0.0
*85 I *L 0.0 *S 0.0 0.0
*86 I *L 0.0 *S 0.0 0.0
*87 I *L 0.0 *S 0.0 0.0
*88 I *L 0.0 *S 0.0 0.0
*89 I *L 0.0 *S 0.0 0.0
*90 I *L 0.0 *S 0.0 0.0
*91 I *L 0.0 *S 0.0 0.0
*92 I *L 0.0 *S 0.0 0.0
*93 I *L 0.0 *S 0.0 0.0
*94 I *L 0.0 *S 0.0 0.0
*95 I *L 0.0 *S 0.0 0.0
*96 O *L 0.0 *S 0.0 0.0
*97 O *L 0.0 *S 0.0 0.0
*98 O *L 0.0 *S 0.0 0.0
*99 O *L 0.0 *S 0.0 0.0
*100 O *L 0.0 *S 0.0 0.0
*101 I *L 0.0 *S 0.0 0.0
*102 I *L 0.0 *S 0.0 0.0
*103 I *L 0.0 *S 0.0 0.0
*104 O *L 0.0 *S 0.0 0.0
*105 O *L 0.0 *S 0.0 0.0
*106 O *L 0.0 *S 0.0 0.0
*107 O *L 0.0 *S 0.0 0.0
*108 O *L 0.0 *S 0.0 0.0
*109 O *L 0.0 *S 0.0 0.0
*110 O *L 0.0 *S 0.0 0.0
*111 O *L 0.0 *S 0.0 0.0
*112 O *L 0.0 *S 0.0 0.0
*113 O *L 0.0 *S 0.0 0.0
*114 O *L 0.0 *S 0.0 0.0
*115 O *L 0.0 *S 0.0 0.0
*116 O *L 0.0 *S 0.0 0.0
*117 O *L 0.0 *S 0.0 0.0
*118 O *L 0.0 *S 0.0 0.0
*119 O *L 0.0 *S 0.0 0.0
*120 O *L 0.0 *S 0.0 0.0
*121 O *L 0.0 *S 0.0 0.0
*122 O *L 0.0 *S 0.0 0.0
*123 O *L 0.0 *S 0.0 0.0
*124 O *L 0.0 *S 0.0 0.0
*125 O *L 0.0 *S 0.0 0.0
*126 O *L 0.0 *S 0.0 0.0
*127 O *L 0.0 *S 0.0 0.0
*128 O *L 0.0 *S 0.0 0.0
*129 O *L 0.0 *S 0.0 0.0
*130 O *L 0.0 *S 0.0 0.0
*131 O *L 0.0 *S 0.0 0.0
*132 O *L 0.0 *S 0.0 0.0
*133 O *L 0.0 *S 0.0 0.0
*134 O *L 0.0 *S 0.0 0.0
*135 O *L 0.0 *S 0.0 0.0
*136 O *L 0.0 *S 0.0 0.0
*137 O *L 0.0 *S 0.0 0.0
*138 O *L 0.0 *S 0.0 0.0
*139 O *L 0.0 *S 0.0 0.0
*140 O *L 0.0 *S 0.0 0.0
*141 O *L 0.0 *S 0.0 0.0
*142 O *L 0.0 *S 0.0 0.0
*143 O *L 0.0 *S 0.0 0.0
*144 O *L 0.0 *S 0.0 0.0
*145 O *L 0.0 *S 0.0 0.0
*146 O *L 0.0 *S 0.0 0.0
*147 O *L 0.0 *S 0.0 0.0
*148 O *L 0.0 *S 0.0 0.0
*149 O *L 0.0 *S 0.0 0.0
*150 O *L 0.0 *S 0.0 0.0
*151 O *L 0.0 *S 0.0 0.0
*152 O *L 0.0 *S 0.0 0.0
*153 O *L 0.0 *S 0.0 0.0
*154 O *L 0.0 *S 0.0 0.0
*155 O *L 0.0 *S 0.0 0.0
*156 O *L 0.0 *S 0.0 0.0
*157 O *L 0.0 *S 0.0 0.0
*158 O *L 0.0 *S 0.0 0.0
*159 O *L 0.0 *S 0.0 0.0
*160 O *L 0.0 *S 0.0 0.0
*161 O *L 0.0 *S 0.0 0.0
*162 O *L 0.0 *S 0.0 0.0
*163 O *L 0.0 *S 0.0 0.0
*164 O *L 0.0 *S 0.0 0.0
*165 O *L 0.0 *S 0.0 0.0
*166 O *L 0.0 *S 0.0 0.0
*167 O *L 0.0 *S 0.0 0.0
*168 O *L 0.0 *S 0.0 0.0
*169 O *L 0.0 *S 0.0 0.0
*170 O *L 0.0 *S 0.0 0.0
*171 O *L 0.0 *S 0.0 0.0
*172 O *L 0.0 *S 0.0 0.0
*173 O *L 0.0 *S 0.0 0.0
*174 O *L 0.0 *S 0.0 0.0
*175 O *L 0.0 *S 0.0 0.0
*176 O *L 0.0 *S 0.0 0.0
*177 O *L 0.0 *S 0.0 0.0
*178 O *L 0.0 *S 0.0 0.0
*179 O *L 0.0 *S 0.0 0.0
*180 O *L 0.0 *S 0.0 0.0
*181 O *L 0.0 *S 0.0 0.0
*182 O *L 0.0 *S 0.0 0.0
*183 O *L 0.0 *S 0.0 0.0
*184 O *L 0.0 *S 0.0 0.0
*185 O *L 0.0 *S 0.0 0.0
*186 O *L 0.0 *S 0.0 0.0
*187 O *L 0.0 *S 0.0 0.0
*188 O *L 0.0 *S 0.0 0.0
*189 O *L 0.0 *S 0.0 0.0
*190 O *L 0.0 *S 0.0 0.0
*191 O *L 0.0 *S 0.0 0.0
*192 I *L 0.0 *S 0.0 0.0
*193 I *L 0.0 *S 0.0 0.0
*194 I *L 0.0 *S 0.0 0.0
*195 O *L 0.0 *S 0.0 0.0
*196 O *L 0.0 *S 0.0 0.0
*197 O *L 0.0 *S 0.0 0.0
*198 O *L 0.0 *S 0.0 0.0
*199 O *L 0.0 *S 0.0 0.0
*200 O *L 0.0 *S 0.0 0.0
*201 O *L 0.0 *S 0.0 0.0
*202 O *L 0.0 *S 0.0 0.0
*203 O *L 0.0 *S 0.0 0.0
*204 O *L 0.0 *S 0.0 0.0
*205 I *L 0.0 *S 0.0 0.0
*206 I *L 0.0 *S 0.0 0.0
*207 I *L 0.0 *S 0.0 0.0

*D_NET *208 5.713989

*CONN
*I *209:A I *L 1643.743 *C 70.177 36.612
*I *210:A I *L 1643.743 *C 90.732 39.412
*I *211:ZN O *L 0.0 *D NAND2_X1 *C 96.235 55.347
*I *212:A1 I *L 1568.247 *C 104.57 64.63
*I *213:A I *L 1643.743 *C 94.532 45.012
*N *208:6 *C 90.55 39.36
*N *208:7 *C 90.55 39.36
*N *208:8 *C 90.62 45.097
*N *208:9 *C 90.62 45.097
*N *208:10 *C 94.42 44.942
*N *208:11 *C 94.42 44.942
*N *208:12 *C 71.93 36.56
*N *208:13 *C 71.93 36.56
*N *208:14 *C 72.0 49.277
*N *208:15 *C 72.0 49.277
*N *208:16 *C 89.29 49.277
*N *208:17 *C 89.29 49.277
*N *208:18 *C 94.42 45.03
*N *208:19 *C 95.87 55.18
*N *208:20 *C 95.87 55.18
*N *208:21 *C 96.32 47.757
*N *208:22 *C 96.32 47.757
*N *208:23 *C 104.57 64.63
*N *208:24 *C 104.42 57.7
*N *208:25 *C 104.42 57.7
*N *208:26 *C 89.49 57.285
*N *208:27 *C 89.49 57.285
*N *208:28 *C 89.48 47.977
*N *208:29 *C 89.48 47.977
*N *208:30 *C 94.42 47.757
*N *208:31 *C 94.42 47.757
*N *208:32 *C 97.65 57.42
*N *208:33 *C 97.65 57.7
*N *208:34 *C 89.29 47.9
*N *208:35 *C 89.29 57.42
*N *208:36 *C 89.49 57.42
*N *208:37 *C 95.94 52.8
*N *208:38 *C 96.32 52.8
*N *208:39 *C 104.49 64.543
*N *208:40 *C 104.57 64.543
*N *208:41 *C 89.48 47.68

*CAP
1 *209:A 0.07125276
2 *210:A 0.01547094
3 *211:ZN 0.02571369
4 *212:A1 0.0
5 *213:A 0.009986217
6 *208:6 0.1601922
7 *208:7 0.01388048
8 *208:8 0.1048902
9 *208:9 0.159752
10 *208:10 0.1048902
11 *208:11 0.1291293
12 *208:12 0.4335478
13 *208:13 0.0696623
14 *208:14 0.425696
15 *208:15 0.4331076
16 *208:16 0.425696
17 *208:17 0.2473465
18 *208:18 0.008395754
19 *208:19 0.05718541
20 *208:20 0.02412323
21 *208:21 0.06262728
22 *208:22 0.1192987
23 *208:23 0.005171679
24 *208:24 0.1767203
25 *208:25 0.2527232
26 *208:26 0.0154906
27 *208:27 0.376634
28 *208:28 0.01199518
29 *208:29 0.01247233
30 *208:30 0.1782581
31 *208:31 0.1286891
32 *208:32 0.3899606
33 *208:33 0.2660498
34 *208:34 0.05075848
35 *208:35 0.2174816
36 *208:36 0.0127211
37 *208:37 0.06986831
38 *208:38 0.1324218
39 *208:39 0.1808399
40 *208:40 0.004233048
41 *208:41 0.1296566

*RES
1 *210:A *208:7 1.607692
2 *208:6 *208:7 2.982249
3 *208:8 *208:9 2.5
4 *208:10 *208:11 2.5
5 *208:12 *208:13 2.982249
6 *208:14 *208:15 2.5
7 *208:16 *208:17 2.5
8 *213:A *208:18 0.2502439
9 *208:11 *208:18 2.982249
10 *208:19 *208:20 2.982249
11 *208:21 *208:22 2.5
12 *208:23 *212:A1 2.982249
13 *208:24 *208:25 2.982249
14 *208:26 *208:27 2.982249
15 *208:28 *208:29 2.5
16 *208:30 *208:31 2.5
17 *209:A *208:13 10.74231
18 *208:27 *208:32 47.5
19 *208:20 *211:ZN 3.456247
20 *208:32 *208:33 1.636923
21 *208:33 *208:25 40.19231
22 *208:12 *208:15 45.70536
23 *208:34 *208:17 5.044643
24 *208:17 *208:35 29.20536
25 *208:34 *208:29 0.3035715
26 *208:35 *208:26 0.5892857
27 *208:26 *208:36 0.125
28 *208:6 *208:9 20.77679
29 *208:11 *208:31 10.28571
30 *208:37 *208:38 1.607143
31 *208:37 *208:19 8.133927
32 *208:22 *208:38 18.41072
33 *208:24 *208:39 24.38393
34 *208:39 *208:23 0.3660714
35 *208:23 *208:40 0.1249275
36 *208:14 *208:16 61.25
37 *208:41 *208:28 1.714286
38 *208:41 *208:30 17.51785
39 *208:30 *208:21 6.535715
40 *208:8 *208:10 13.19643

*END

*D_NET *201 7.571421

*CONN
*I *214:A2 I *L 939.232 *C 84.02 18.57
*I *215:A2 I *L 939.232 *C 90.937 19.83
*I *216:A2 I *L 939.232 *C 89.808 28.23
*I *217:A2 I *L 939.232 *C 74.532 17.03
*I *213:ZN O *L 0.0 *D INV_X1 *C 94.752 45.52
*P *201 O *C 129.905 65.92
*N *201:7 *C 112.09 65.997
*N *201:8 *C 112.09 65.997
*N *201:9 *C 112.09 48.517
*N *201:10 *C 112.09 48.517
*N *201:11 *C 94.752 45.52
*N *201:12 *C 90.937 19.83
*N *201:13 *C 90.81 20.397
*N *201:14 *C 90.81 20.397
*N *201:15 *C 89.86 20.397
*N *201:16 *C 89.86 20.397
*N *201:17 *C 84.02 18.57
*N *201:18 *C 74.532 17.03
*N *201:19 *C 74.66 19.257
*N *201:20 *C 74.66 19.257
*N *201:21 *C 89.808 28.23
*N *201:22 *C 78.27 19.257
*N *201:23 *C 78.27 19.257
*N *201:24 *C 78.27 34.077
*N *201:25 *C 78.27 34.077
*N *201:26 *C 77.89 34.077
*N *201:27 *C 77.89 34.077
*N *201:28 *C 77.89 47.377
*N *201:29 *C 77.89 47.377
*N *201:30 *C 79.22 47.377
*N *201:31 *C 79.22 47.377
*N *201:32 *C 79.15 48.04
*N *201:33 *C 79.15 48.04
*N *201:34 *C 89.93 48.04
*N *201:35 *C 89.93 48.04
*N *201:36 *C 89.85 48.575
*N *201:37 *C 89.85 48.575
*N *201:38 *C 90.05 48.39
*N *201:39 *C 90.05 48.39
*N *201:40 *C 90.05 48.362
*N *201:41 *C 83.97 19.257
*N *201:42 *C 83.97 19.257
*N *201:43 *C 83.9 19.76
*N *201:44 *C 83.9 19.76
*N *201:45 *C 89.79 19.76
*N *201:46 *C 89.79 19.76
*N *201:47 *C 94.61 48.517
*N *201:48 *C 94.61 48.517
*N *201:49 *C 74.532 17.116
*N *201:50 *C 74.66 17.116
*N *201:51 *C 83.97 18.656
*N *201:52 *C 84.02 18.656
*N *201:53 *C 89.808 28.143
*N *201:54 *C 89.86 28.143
*N *201:55 *C 90.81 19.916
*N *201:56 *C 90.937 19.916
*N *201:57 *C 94.61 45.536
*N *201:58 *C 94.717 45.536

*CAP
1 *214:A2 0.0
2 *215:A2 0.0
3 *216:A2 0.0
4 *217:A2 0.0
5 *213:ZN 0.01343502
6 *201 0.4287994
7 *201:7 0.4267687
8 *201:8 0.4397911
9 *201:9 0.4508106
10 *201:10 0.4397911
11 *201:11 0.01937637
12 *201:12 0.00792033
13 *201:13 0.0395988
14 *201:14 0.01653847
15 *201:15 0.0395988
16 *201:16 0.2134548
17 *201:17 0.004258447
18 *201:18 0.001436213
19 *201:19 0.09950298
20 *201:20 0.06510684
21 *201:21 0.1975221
22 *201:22 0.2630849
23 *201:23 0.3785657
24 *201:24 0.02279251
25 *201:25 0.3785657
26 *201:26 0.02279251
27 *201:27 0.3642854
28 *201:28 0.05116761
29 *201:29 0.3642854
30 *201:30 0.05116761
31 *201:31 0.02596121
32 *201:32 0.02640139
33 *201:33 0.4026716
34 *201:34 0.05588505
35 *201:35 0.4026716
36 *201:36 0.05588505
37 *201:37 0.02539131
38 *201:38 0.01682423
39 *201:39 0.02539131
40 *201:40 0.1350951
41 *201:41 0.1615513
42 *201:42 0.03454484
43 *201:43 0.01838445
44 *201:44 0.2322995
45 *201:45 0.02153523
46 *201:46 0.2322995
47 *201:47 0.5690815
48 *201:48 0.08833262
49 *201:49 0.00869444
50 *201:50 0.07280524
51 *201:51 0.01814919
52 *201:52 0.004300293
53 *201:53 0.007867254
54 *201:54 0.004594623
55 *201:55 0.02321129
56 *201:56 0.004868613
57 *201:57 0.092374
58 *201:58 0.003930612

*RES
1 *201:7 *201:8 2.5
2 *201:9 *201:10 2.5
3 *201:11 *213:ZN 2.982249
4 *201:12 *215:A2 2.982249
5 *201:13 *201:14 2.5
6 *201:15 *201:16 2.5
7 *201:17 *214:A2 2.982249
8 *201:18 *217:A2 2.982249
9 *201:19 *201:20 2.5
10 *201:21 *216:A2 2.982249
11 *201:22 *201:23 2.5
12 *201:24 *201:25 2.5
13 *201:26 *201:27 2.5
14 *201:28 *201:29 2.5
15 *201:30 *201:31 2.5
16 *201:32 *201:33 2.982249
17 *201:34 *201:35 2.982249
18 *201:36 *201:37 2.982249
19 *201:38 *201:39 2.982249
20 *201:40 *201:38 2.5
21 *201:41 *201:42 2.5
22 *201:43 *201:44 2.982249
23 *201:45 *201:46 2.982249
24 *201:47 *201:48 2.5
25 *201:33 *201:35 64.62923
26 *201:44 *201:46 36.04154
27 *201:37 *201:39 0.7189189
28 *201:18 *201:49 0.124878
29 *201:49 *201:50 0.4817074
30 *201:50 *201:20 7.991072
31 *201:27 *201:29 48.55357
32 *201:23 *201:25 53.98214
33 *201:31 *201:32 2.651786
34 *201:51 *201:17 0.25
35 *201:17 *201:52 0.1249275
36 *201:51 *201:42 2.330357
37 *201:42 *201:43 1.553572
38 *201:21 *201:53 0.5002901
39 *201:53 *201:54 0.3660714
40 *201:45 *201:16 2.035714
41 *201:16 *201:21 27.54464
42 *201:21 *201:54 0.25
43 *201:34 *201:36 1.303571
44 *201:55 *201:12 0.3963415
45 *201:12 *201:56 0.1249275
46 *201:55 *201:14 2.0625
47 *201:57 *201:11 0.25
48 *201:11 *201:58 1e-07
49 *201:57 *201:48 10.99107
50 *201:10 *201:8 63.48214
51 *201:19 *201:22 12.64286
52 *201:22 *201:41 20.10714
53 *201:26 *201:24 0.8571429
54 *201:28 *201:30 4.25
55 *201:15 *201:13 2.892857
56 *201:40 *201:47 16.16071
57 *201:47 *201:9 62.17857
58 *201:7 *201 63.25

*END

*D_NET *218 8.060346

*CONN
*I *219:A I *L 1612.742 *C 95.437 64.612
*I *220:ZN O *L 0.0 *D NAND2_X1 *C 60.22 67.15
*I *221:A I *L 1643.743 *C 57.447 94.187
*I *222:A I *L 1643.743 *C 60.127 54.97
*I *223:A I *L 1643.743 *C 97.952 103.812
*N *218:6 *C 60.127 54.97
*N *218:7 *C 60.205 55.28
*N *218:8 *C 60.205 55.28
*N *218:9 *C 65.272 55.28
*N *218:10 *C 65.272 55.28
*N *218:11 *C 65.272 67.64
*N *218:12 *C 65.272 67.64
*N *218:13 *C 60.15 94.24
*N *218:14 *C 60.15 94.24
*N *218:15 *C 97.77 103.76
*N *218:16 *C 97.77 103.76
*N *218:17 *C 97.77 102.5
*N *218:18 *C 97.77 102.5
*N *218:19 *C 99.86 102.565
*N *218:20 *C 99.86 102.565
*N *218:21 *C 99.93 102.477
*N *218:22 *C 99.852 102.4
*N *218:23 *C 99.93 99.21
*N *218:24 *C 99.93 99.21
*N *218:25 *C 98.83 99.36
*N *218:26 *C 98.83 99.36
*N *218:27 *C 98.83 70.48
*N *218:28 *C 98.83 70.48
*N *218:29 *C 99.74 70.33
*N *218:30 *C 99.74 70.33
*N *218:31 *C 99.662 70.48
*N *218:32 *C 99.74 70.557
*N *218:33 *C 99.48 67.64
*N *218:34 *C 99.48 67.64
*N *218:35 *C 95.56 64.63
*N *218:36 *C 95.56 64.63
*N *218:37 *C 95.49 67.64
*N *218:38 *C 95.49 67.64
*N *218:39 *C 60.22 67.15
*N *218:40 *C 60.22 67.897
*N *218:41 *C 60.22 67.897
*N *218:42 *C 65.28 67.64
*N *218:43 *C 65.28 67.64
*N *218:44 *C 99.55 70.48

*CAP
1 *219:A 0.01203298
2 *220:ZN 0.0
3 *221:A 0.104965
4 *222:A 0.0
5 *223:A 0.01231761
6 *218:6 0.02123249
7 *218:7 0.1272134
8 *218:8 0.02079231
9 *218:9 0.2832734
10 *218:10 0.1270087
11 *218:11 0.2832734
12 *218:12 0.1645196
13 *218:13 0.6872689
14 *218:14 0.1033746
15 *218:15 0.05068524
16 *218:16 0.01072714
17 *218:17 0.05068524
18 *218:18 0.08950583
19 *218:19 0.01624975
20 *218:20 0.08950583
21 *218:21 0.03206536
22 *218:22 0.09837777
23 *218:23 0.0396238
24 *218:24 0.07747853
25 *218:25 0.7957726
26 *218:26 0.03940675
27 *218:27 0.7957726
28 *218:28 0.03707592
29 *218:29 0.03729297
30 *218:30 0.01718743
31 *218:31 0.03127205
32 *218:32 0.02314544
33 *218:33 0.0776466
34 *218:34 0.1521564
35 *218:35 0.08734795
36 *218:36 0.01044251
37 *218:37 0.08734795
38 *218:38 1.265042
39 *218:39 0.02426223
40 *218:40 0.1496214
41 *218:41 0.7126814
42 *218:42 0.01286757
43 *218:43 1.111295
44 *218:44 0.09053325

*RES
1 *218:6 *222:A 2.982249
2 *218:7 *218:8 2.5
3 *218:9 *218:10 2.5
4 *218:11 *218:12 2.5
5 *218:13 *218:14 2.982249
6 *223:A *218:16 1.607693
7 *218:15 *218:16 2.982249
8 *218:17 *218:18 2.982249
9 *218:19 *218:20 2.982249
10 *218:21 *218:19 2.5
11 *218:22 *218:21 2.5
12 *218:23 *218:24 1.530612
13 *218:25 *218:26 1.530612
14 *218:27 *218:28 1.530612
15 *218:29 *218:30 1.530612
16 *218:30 *218:31 2.5
17 *218:31 *218:32 2.5
18 *218:33 *218:34 2.982249
19 *219:A *218:36 0.2502439
20 *218:35 *218:36 2.982249
21 *218:37 *218:38 2.982249
22 *218:39 *220:ZN 2.982249
23 *218:40 *218:41 2.5
24 *218:42 *218:43 2.982249
25 *218:12 *218:42 2.5
26 *221:A *218:14 16.29615
27 *218:43 *218:38 177.4162
28 *218:38 *218:34 24.13
29 *218:18 *218:20 13.82615
30 *218:6 *218:8 0.4910714
31 *218:39 *218:41 3.160714
32 *218:41 *218:13 93.83929
33 *218:35 *218:37 11.0
34 *218:17 *218:15 4.017858
35 *218:33 *218:44 10.02679
36 *218:44 *218:32 0.3035715
37 *218:7 *218:10 19.15179
38 *218:40 *218:12 18.07143
39 *218:9 *218:11 18.54
40 *218:24 *218:22 5.115
41 *218:28 *218:29 1.59
42 *218:26 *218:23 1.875
43 *218:27 *218:25 43.11

*END

*D_NET *224 5.009161

*CONN
*I *225:A I *L 1643.743 *C 33.2 38.24
*I *226:A I *L 1643.743 *C 35.787 49.387
*I *227:A I *L 1643.743 *C 41.677 63.387
*I *228:A I *L 1643.743 *C 42.93 81.36
*I *229:ZN O *L 0.0 *D NAND2_X1 *C 54.815 80.547
*N *224:6 *C 33.2 38.24
*N *224:7 *C 33.05 45.857
*N *224:8 *C 33.05 45.857
*N *224:9 *C 34.76 45.857
*N *224:10 *C 34.76 45.857
*N *224:11 *C 34.57 48.137
*N *224:12 *C 34.57 48.137
*N *224:13 *C 35.9 49.37
*N *224:14 *C 35.9 49.37
*N *224:15 *C 35.9 48.137
*N *224:16 *C 35.9 48.137
*N *224:17 *C 42.29 63.3
*N *224:18 *C 42.29 63.3
*N *224:19 *C 42.93 81.36
*N *224:20 *C 43.58 81.295
*N *224:21 *C 43.58 81.295
*N *224:22 *C 47.8 81.36
*N *224:23 *C 47.8 81.36
*N *224:24 *C 52.17 80.24
*N *224:25 *C 52.17 80.24
*N *224:26 *C 52.17 82.76
*N *224:27 *C 52.17 82.76
*N *224:28 *C 47.86 82.83
*N *224:29 *C 47.86 82.83
*N *224:30 *C 47.8 57.56
*N *224:31 *C 47.8 57.56
*N *224:32 *C 42.35 57.63
*N *224:33 *C 42.35 57.63
*N *224:34 *C 42.36 48.137
*N *224:35 *C 42.36 48.137
*N *224:36 *C 54.33 80.24
*N *224:37 *C 54.33 80.38
*N *224:38 *C 33.05 38.24
*N *224:39 *C 34.76 48.06
*N *224:40 *C 47.865 82.795
*N *224:41 *C 47.87 72.4
*N *224:42 *C 48.06 72.4
*N *224:43 *C 47.87 77.58
*N *224:44 *C 48.06 77.58

*CAP
1 *225:A 0.01181967
2 *226:A 0.01011064
3 *227:A 0.02777801
4 *228:A 0.01178208
5 *229:ZN 0.01373779
6 *224:6 0.01431807
7 *224:7 0.05777935
8 *224:8 0.1941723
9 *224:9 0.05777935
10 *224:10 0.05694088
11 *224:11 0.03720459
12 *224:12 0.01244374
13 *224:13 0.03865518
14 *224:14 0.008520173
15 *224:15 0.2059502
16 *224:16 0.038215
17 *224:17 0.1454244
18 *224:18 0.02618755
19 *224:19 0.04091645
20 *224:20 0.02754391
21 *224:21 0.1680536
22 *224:22 0.135092
23 *224:23 0.1680536
24 *224:24 0.07783541
25 *224:25 0.08861673
26 *224:26 0.07783541
27 *224:27 0.1831267
28 *224:28 0.05091749
29 *224:29 0.1831267
30 *224:30 0.4065057
31 *224:31 0.2202894
32 *224:32 0.3970869
33 *224:33 0.2202894
34 *224:34 0.166715
35 *224:35 0.2496318
36 *224:36 0.0950622
37 *224:37 0.0185928
38 *224:38 0.1987014
39 *224:39 0.07344589
40 *224:40 0.007302617
41 *224:41 0.4138543
42 *224:42 0.1346802
43 *224:43 0.09981066
44 *224:44 0.1372555

*RES
1 *224:6 *225:A 2.982249
2 *224:7 *224:8 2.5
3 *224:9 *224:10 2.5
4 *224:11 *224:12 2.5
5 *226:A *224:14 0.2502439
6 *224:13 *224:14 2.982249
7 *224:15 *224:16 2.5
8 *224:17 *224:18 2.982249
9 *224:19 *228:A 2.982249
10 *224:20 *224:21 2.982249
11 *224:22 *224:23 2.982249
12 *224:24 *224:25 2.982249
13 *224:26 *224:27 2.982249
14 *224:28 *224:29 2.982249
15 *224:30 *224:31 2.982249
16 *224:32 *224:33 2.982249
17 *224:34 *224:35 2.5
18 *227:A *224:18 4.077692
19 *224:33 *224:31 32.27077
20 *224:21 *224:23 26.27846
21 *224:29 *224:27 25.60616
22 *224:25 *224:36 13.62154
23 *224:36 *224:37 0.8184617
24 *224:37 *229:ZN 2.630769
25 *224:38 *224:6 0.125
26 *224:38 *224:8 27.85714
27 *224:12 *224:39 0.6785714
28 *224:10 *224:39 8.267858
29 *224:16 *224:13 5.419642
30 *224:35 *224:32 34.42857
31 *224:32 *224:17 20.00893
32 *224:19 *224:20 2.446428
33 *224:28 *224:40 0.05072464
34 *224:30 *224:41 52.88393
35 *224:41 *224:42 0.6785715
36 *224:43 *224:44 0.9285714
37 *224:43 *224:22 13.375
38 *224:22 *224:28 4.821429
39 *224:42 *224:44 18.25
40 *224:24 *224:26 8.517858
41 *224:7 *224:9 5.607142
42 *224:11 *224:15 4.5
43 *224:15 *224:34 22.82143

*END

*D_NET *230 1.283211

*CONN
*I *231:A I *L 1643.743 *C 89.592 42.212
*I *232:A I *L 1643.743 *C 83.097 42.212
*I *233:ZN O *L 0.0 *D AND2_X1 *C 90.535 50.72
*N *230:4 *C 90.17 50.28
*N *230:5 *C 90.17 50.28
*N *230:6 *C 90.24 42.437
*N *230:7 *C 90.24 42.437
*N *230:8 *C 89.48 42.282
*N *230:9 *C 89.48 42.282
*N *230:10 *C 89.48 42.23

*CAP
1 *231:A 0.01098101
2 *232:A 0.3293341
3 *233:ZN 0.02150505
4 *230:4 0.2213872
5 *230:5 0.01991459
6 *230:6 0.0386182
7 *230:7 0.220947
8 *230:8 0.0386182
9 *230:9 0.02079509
10 *230:10 0.3611102

*RES
1 *230:4 *230:5 2.982249
2 *230:6 *230:7 2.5
3 *230:8 *230:9 2.5
4 *231:A *230:10 0.5770371
5 *230:9 *230:10 2.982249
6 *232:A *230:10 36.61154
7 *230:5 *233:ZN 2.674615
8 *230:7 *230:4 28.29464
9 *230:8 *230:6 2.339286

*END

*D_NET *234 4.366958

*CONN
*I *235:A2 I *L 939.232 *C 23.216 105.37
*I *236:A2 I *L 939.232 *C 32.332 102.57
*I *237:A2 I *L 939.232 *C 28.932 110.97
*I *238:A2 I *L 939.232 *C 18.292 109.427
*I *239:ZN O *L 0.0 *D AND2_X1 *C 62.035 96.88
*N *234:6 *C 61.67 96.9
*N *234:7 *C 61.67 96.9
*N *234:8 *C 61.74 102.477
*N *234:9 *C 61.74 102.477
*N *234:10 *C 40.347 102.4
*N *234:11 *C 40.347 102.4
*N *234:12 *C 40.2 102.64
*N *234:13 *C 40.2 102.64
*N *234:14 *C 32.93 102.78
*N *234:15 *C 32.93 102.78
*N *234:16 *C 32.332 102.57
*N *234:17 *C 32.29 102.857
*N *234:18 *C 32.29 102.857
*N *234:19 *C 32.86 102.857
*N *234:20 *C 28.932 110.97
*N *234:21 *C 18.292 109.427
*N *234:22 *C 23.216 105.37
*N *234:23 *C 27.47 108.1
*N *234:24 *C 27.47 108.1
*N *234:25 *C 31.84 108.035
*N *234:26 *C 31.84 108.035
*N *234:27 *C 31.91 108.177
*N *234:28 *C 32.86 108.177
*N *234:29 *C 32.86 108.177
*N *234:30 *C 27.617 110.0
*N *234:31 *C 27.617 110.0
*N *234:32 *C 28.947 110.0
*N *234:33 *C 28.947 110.0
*N *234:34 *C 23.092 110.0
*N *234:35 *C 23.092 110.0
*N *234:36 *C 18.405 110.0
*N *234:37 *C 18.405 110.0
*N *234:38 *C 32.93 102.64
*N *234:39 *C 18.292 109.515
*N *234:40 *C 18.327 109.515
*N *234:41 *C 23.17 105.456
*N *234:42 *C 23.216 105.456
*N *234:43 *C 27.521 109.343
*N *234:44 *C 27.522 109.393
*N *234:45 *C 27.522 109.24
*N *234:46 *C 28.87 111.023
*N *234:47 *C 28.932 111.023
*N *234:48 *C 32.328 102.663

*CAP
1 *235:A2 0.0
2 *236:A2 0.0
3 *237:A2 0.0
4 *238:A2 0.0
5 *239:ZN 0.01967287
6 *234:6 0.159545
7 *234:7 0.01808241
8 *234:8 0.5202479
9 *234:9 0.1591049
10 *234:10 0.5202479
11 *234:11 0.01824664
12 *234:12 0.01868681
13 *234:13 0.3711861
14 *234:14 0.1676271
15 *234:15 0.01515798
16 *234:16 0.006168947
17 *234:17 0.02807877
18 *234:18 0.01552719
19 *234:19 0.02807877
20 *234:20 0.04469759
21 *234:21 0.002631984
22 *234:22 0.004381803
23 *234:23 0.03562438
24 *234:24 0.2325406
25 *234:25 0.01491134
26 *234:26 0.2325406
27 *234:27 0.0582165
28 *234:28 0.04127452
29 *234:29 0.1676271
30 *234:30 0.1493649
31 *234:31 0.02327498
32 *234:32 0.03437266
33 *234:33 0.03887962
34 *234:34 0.2359029
35 *234:35 0.1539228
36 *234:36 0.1209106
37 *234:37 0.02041582
38 *234:38 0.389525
39 *234:39 0.004976915
40 *234:40 0.0266689
41 *234:41 0.1576876
42 *234:42 0.004238086
43 *234:43 0.006748413
44 *234:44 0.02829001
45 *234:45 0.04097887
46 *234:46 0.002998339
47 *234:47 0.002379451
48 *234:48 0.02531724

*RES
1 *234:6 *234:7 2.982249
2 *234:8 *234:9 2.5
3 *234:10 *234:11 2.5
4 *234:12 *234:13 2.982249
5 *234:14 *234:15 2.982249
6 *234:16 *236:A2 2.982249
7 *234:17 *234:18 2.5
8 *234:19 *234:14 2.5
9 *234:20 *237:A2 2.982249
10 *234:21 *238:A2 2.982249
11 *234:22 *235:A2 2.982249
12 *234:23 *234:24 2.982249
13 *234:25 *234:26 2.982249
14 *234:27 *234:25 2.5
15 *234:28 *234:29 2.5
16 *234:30 *234:31 2.5
17 *234:32 *234:33 2.5
18 *234:34 *234:35 2.5
19 *234:36 *234:37 2.5
20 *234:24 *234:26 27.15539
21 *234:38 *234:15 0.4448781
22 *234:38 *234:13 42.70615
23 *234:7 *239:ZN 2.674615
24 *234:21 *234:39 0.3571429
25 *234:39 *234:40 0.3571429
26 *234:21 *234:40 0.25
27 *234:40 *234:37 1.660714
28 *234:41 *234:22 0.25
29 *234:22 *234:42 0.1249275
30 *234:41 *234:35 16.16071
31 *234:43 *234:44 0.375
32 *234:45 *234:43 0.330238
33 *234:23 *234:45 3.705358
34 *234:44 *234:31 1.857143
35 *234:33 *234:20 3.031071
36 *234:20 *234:46 0.124878
37 *234:20 *234:47 0.125
38 *234:16 *234:48 0.125
39 *234:48 *234:18 0.9166666
40 *234:14 *234:29 19.32607
41 *234:11 *234:12 0.3660714
42 *234:6 *234:9 20.20536
43 *234:36 *234:34 17.26786
44 *234:34 *234:30 16.16071
45 *234:30 *234:32 5.276786
46 *234:27 *234:28 2.892857
47 *234:17 *234:19 1.535714
48 *234:10 *234:8 76.67857

*END

*D_NET *240 3.305002

*CONN
*I *241:A I *L 1612.742 *C 70.357 71.787
*I *242:ZN O *L 0.0 *D NAND3_X1 *C 109.88 74.36
*N *240:3 *C 110.88 71.84
*N *240:4 *C 110.88 71.84
*N *240:5 *C 110.95 74.357
*N *240:6 *C 110.95 74.357
*N *240:7 *C 109.81 74.357
*N *240:8 *C 109.81 74.357

*CAP
1 *241:A 1.522576
2 *242:ZN 0.01077365
3 *240:3 0.07475056
4 *240:4 1.520985
5 *240:5 0.0454162
6 *240:6 0.07431038
7 *240:7 0.0454162
8 *240:8 0.01077365

*RES
1 *240:3 *240:4 2.982249
2 *240:5 *240:6 2.5
3 *240:7 *240:8 2.5
4 *240:8 *242:ZN 2.982249
5 *241:A *240:4 237.3393
6 *240:3 *240:6 9.276786
7 *240:7 *240:5 3.571429

*END

*D_NET *243 2.813024

*CONN
*I *244:A2 I *L 939.232 *C 82.772 60.57
*I *245:A I *L 1643.743 *C 60.297 71.787
*I *246:Q O *L 0.0 *D DFFR_X1 *C 82.55 73.117
*I *220:A2 I *L 1613.222 *C 59.962 67.412
*N *243:5 *C 60.48 71.84
*N *243:6 *C 60.48 71.84
*N *243:7 *C 82.772 60.57